
---------- Begin Simulation Statistics ----------
simSeconds                                   0.002000                       # Number of seconds simulated (Second)
simTicks                                   2000000000                       # Number of ticks simulated (Tick)
finalTick                                  2000000000                       # Number of ticks from beginning of simulation (restored from checkpoints and never reset) (Tick)
simFreq                                  1000000000000                       # The number of ticks per simulated second ((Tick/Second))
hostSeconds                                      0.61                       # Real time elapsed on the host (Second)
hostTickRate                               3298473961                       # The number of ticks simulated per host second (ticks/s) ((Tick/Second))
hostMemory                                     687908                       # Number of bytes of host memory used (Byte)
simInsts                                        40443                       # Number of instructions simulated (Count)
simOps                                          40454                       # Number of ops (including micro ops) simulated (Count)
hostInstRate                                    66684                       # Simulator instruction rate (inst/s) ((Count/Second))
hostOpRate                                      66702                       # Simulator op (including micro ops) rate (op/s) ((Count/Second))
system.clk_domain.clock                         41667                       # Clock period in ticks (Tick)
system.clk_domain.voltage_domain.voltage            1                       # Voltage in Volts (Volt)
system.cpu.numCycles                            47999                       # Number of cpu cycles simulated (Cycle)
system.cpu.cpi                               1.186831                       # CPI: cycles per instruction (core level) ((Cycle/Count))
system.cpu.ipc                               0.842580                       # IPC: instructions per cycle (core level) ((Count/Cycle))
system.cpu.numWorkItemsStarted                      0                       # Number of work items this cpu started (Count)
system.cpu.numWorkItemsCompleted                    0                       # Number of work items this cpu completed (Count)
system.cpu.branchPred.lookups_0::NoBranch           16      0.14%      0.14% # Number of BP lookups (Count)
system.cpu.branchPred.lookups_0::Return           765      6.85%      6.99% # Number of BP lookups (Count)
system.cpu.branchPred.lookups_0::CallDirect          883      7.90%     14.89% # Number of BP lookups (Count)
system.cpu.branchPred.lookups_0::CallIndirect           13      0.12%     15.01% # Number of BP lookups (Count)
system.cpu.branchPred.lookups_0::DirectCond         7847     70.23%     85.24% # Number of BP lookups (Count)
system.cpu.branchPred.lookups_0::DirectUncond         1066      9.54%     94.78% # Number of BP lookups (Count)
system.cpu.branchPred.lookups_0::IndirectCond            0      0.00%     94.78% # Number of BP lookups (Count)
system.cpu.branchPred.lookups_0::IndirectUncond          583      5.22%    100.00% # Number of BP lookups (Count)
system.cpu.branchPred.lookups_0::total          11173                       # Number of BP lookups (Count)
system.cpu.branchPred.squashes_0::NoBranch            5      0.44%      0.44% # Number of branches that got squashed (completely removed) as an earlier branch was mispredicted. (Count)
system.cpu.branchPred.squashes_0::Return           91      8.07%      8.52% # Number of branches that got squashed (completely removed) as an earlier branch was mispredicted. (Count)
system.cpu.branchPred.squashes_0::CallDirect          208     18.46%     26.97% # Number of branches that got squashed (completely removed) as an earlier branch was mispredicted. (Count)
system.cpu.branchPred.squashes_0::CallIndirect           10      0.89%     27.86% # Number of branches that got squashed (completely removed) as an earlier branch was mispredicted. (Count)
system.cpu.branchPred.squashes_0::DirectCond          682     60.51%     88.38% # Number of branches that got squashed (completely removed) as an earlier branch was mispredicted. (Count)
system.cpu.branchPred.squashes_0::DirectUncond          123     10.91%     99.29% # Number of branches that got squashed (completely removed) as an earlier branch was mispredicted. (Count)
system.cpu.branchPred.squashes_0::IndirectCond            0      0.00%     99.29% # Number of branches that got squashed (completely removed) as an earlier branch was mispredicted. (Count)
system.cpu.branchPred.squashes_0::IndirectUncond            8      0.71%    100.00% # Number of branches that got squashed (completely removed) as an earlier branch was mispredicted. (Count)
system.cpu.branchPred.squashes_0::total          1127                       # Number of branches that got squashed (completely removed) as an earlier branch was mispredicted. (Count)
system.cpu.branchPred.corrected_0::NoBranch           11      2.81%      2.81% # Number of branches that got corrected but not yet commited. Branches get corrected by decode or after execute. Also a branch misprediction can be detected out-of-order. Therefore, a corrected branch might not end up beeing committed in case an even earlier branch was mispredicted (Count)
system.cpu.branchPred.corrected_0::Return            7      1.79%      4.60% # Number of branches that got corrected but not yet commited. Branches get corrected by decode or after execute. Also a branch misprediction can be detected out-of-order. Therefore, a corrected branch might not end up beeing committed in case an even earlier branch was mispredicted (Count)
system.cpu.branchPred.corrected_0::CallDirect           82     20.97%     25.58% # Number of branches that got corrected but not yet commited. Branches get corrected by decode or after execute. Also a branch misprediction can be detected out-of-order. Therefore, a corrected branch might not end up beeing committed in case an even earlier branch was mispredicted (Count)
system.cpu.branchPred.corrected_0::CallIndirect            3      0.77%     26.34% # Number of branches that got corrected but not yet commited. Branches get corrected by decode or after execute. Also a branch misprediction can be detected out-of-order. Therefore, a corrected branch might not end up beeing committed in case an even earlier branch was mispredicted (Count)
system.cpu.branchPred.corrected_0::DirectCond          234     59.85%     86.19% # Number of branches that got corrected but not yet commited. Branches get corrected by decode or after execute. Also a branch misprediction can be detected out-of-order. Therefore, a corrected branch might not end up beeing committed in case an even earlier branch was mispredicted (Count)
system.cpu.branchPred.corrected_0::DirectUncond           45     11.51%     97.70% # Number of branches that got corrected but not yet commited. Branches get corrected by decode or after execute. Also a branch misprediction can be detected out-of-order. Therefore, a corrected branch might not end up beeing committed in case an even earlier branch was mispredicted (Count)
system.cpu.branchPred.corrected_0::IndirectCond            0      0.00%     97.70% # Number of branches that got corrected but not yet commited. Branches get corrected by decode or after execute. Also a branch misprediction can be detected out-of-order. Therefore, a corrected branch might not end up beeing committed in case an even earlier branch was mispredicted (Count)
system.cpu.branchPred.corrected_0::IndirectUncond            9      2.30%    100.00% # Number of branches that got corrected but not yet commited. Branches get corrected by decode or after execute. Also a branch misprediction can be detected out-of-order. Therefore, a corrected branch might not end up beeing committed in case an even earlier branch was mispredicted (Count)
system.cpu.branchPred.corrected_0::total          391                       # Number of branches that got corrected but not yet commited. Branches get corrected by decode or after execute. Also a branch misprediction can be detected out-of-order. Therefore, a corrected branch might not end up beeing committed in case an even earlier branch was mispredicted (Count)
system.cpu.branchPred.earlyResteers_0::NoBranch            0                       # Number of branches that got redirected after decode. (Count)
system.cpu.branchPred.earlyResteers_0::Return            0                       # Number of branches that got redirected after decode. (Count)
system.cpu.branchPred.earlyResteers_0::CallDirect            0                       # Number of branches that got redirected after decode. (Count)
system.cpu.branchPred.earlyResteers_0::CallIndirect            0                       # Number of branches that got redirected after decode. (Count)
system.cpu.branchPred.earlyResteers_0::DirectCond            0                       # Number of branches that got redirected after decode. (Count)
system.cpu.branchPred.earlyResteers_0::DirectUncond            0                       # Number of branches that got redirected after decode. (Count)
system.cpu.branchPred.earlyResteers_0::IndirectCond            0                       # Number of branches that got redirected after decode. (Count)
system.cpu.branchPred.earlyResteers_0::IndirectUncond            0                       # Number of branches that got redirected after decode. (Count)
system.cpu.branchPred.earlyResteers_0::total            0                       # Number of branches that got redirected after decode. (Count)
system.cpu.branchPred.committed_0::NoBranch           11      0.11%      0.11% # Number of branches finally committed  (Count)
system.cpu.branchPred.committed_0::Return          673      6.70%      6.81% # Number of branches finally committed  (Count)
system.cpu.branchPred.committed_0::CallDirect          675      6.72%     13.54% # Number of branches finally committed  (Count)
system.cpu.branchPred.committed_0::CallIndirect            3      0.03%     13.57% # Number of branches finally committed  (Count)
system.cpu.branchPred.committed_0::DirectCond         7159     71.31%     84.88% # Number of branches finally committed  (Count)
system.cpu.branchPred.committed_0::DirectUncond          943      9.39%     94.27% # Number of branches finally committed  (Count)
system.cpu.branchPred.committed_0::IndirectCond            0      0.00%     94.27% # Number of branches finally committed  (Count)
system.cpu.branchPred.committed_0::IndirectUncond          575      5.73%    100.00% # Number of branches finally committed  (Count)
system.cpu.branchPred.committed_0::total        10039                       # Number of branches finally committed  (Count)
system.cpu.branchPred.mispredicted_0::NoBranch           11      2.81%      2.81% # Number of committed branches that were mispredicted. (Count)
system.cpu.branchPred.mispredicted_0::Return            7      1.79%      4.60% # Number of committed branches that were mispredicted. (Count)
system.cpu.branchPred.mispredicted_0::CallDirect           82     20.97%     25.58% # Number of committed branches that were mispredicted. (Count)
system.cpu.branchPred.mispredicted_0::CallIndirect            3      0.77%     26.34% # Number of committed branches that were mispredicted. (Count)
system.cpu.branchPred.mispredicted_0::DirectCond          234     59.85%     86.19% # Number of committed branches that were mispredicted. (Count)
system.cpu.branchPred.mispredicted_0::DirectUncond           45     11.51%     97.70% # Number of committed branches that were mispredicted. (Count)
system.cpu.branchPred.mispredicted_0::IndirectCond            0      0.00%     97.70% # Number of committed branches that were mispredicted. (Count)
system.cpu.branchPred.mispredicted_0::IndirectUncond            9      2.30%    100.00% # Number of committed branches that were mispredicted. (Count)
system.cpu.branchPred.mispredicted_0::total          391                       # Number of committed branches that were mispredicted. (Count)
system.cpu.branchPred.mispredictDueToPredictor_0::NoBranch            0      0.00%      0.00% # Number of committed branches that were mispredicted by the predictor. (Count)
system.cpu.branchPred.mispredictDueToPredictor_0::Return            0      0.00%      0.00% # Number of committed branches that were mispredicted by the predictor. (Count)
system.cpu.branchPred.mispredictDueToPredictor_0::CallDirect            0      0.00%      0.00% # Number of committed branches that were mispredicted by the predictor. (Count)
system.cpu.branchPred.mispredictDueToPredictor_0::CallIndirect            0      0.00%      0.00% # Number of committed branches that were mispredicted by the predictor. (Count)
system.cpu.branchPred.mispredictDueToPredictor_0::DirectCond          117    100.00%    100.00% # Number of committed branches that were mispredicted by the predictor. (Count)
system.cpu.branchPred.mispredictDueToPredictor_0::DirectUncond            0      0.00%    100.00% # Number of committed branches that were mispredicted by the predictor. (Count)
system.cpu.branchPred.mispredictDueToPredictor_0::IndirectCond            0      0.00%    100.00% # Number of committed branches that were mispredicted by the predictor. (Count)
system.cpu.branchPred.mispredictDueToPredictor_0::IndirectUncond            0      0.00%    100.00% # Number of committed branches that were mispredicted by the predictor. (Count)
system.cpu.branchPred.mispredictDueToPredictor_0::total          117                       # Number of committed branches that were mispredicted by the predictor. (Count)
system.cpu.branchPred.mispredictDueToBTBMiss_0::NoBranch           11      4.01%      4.01% # Number of committed branches that were mispredicted because of a BTB miss. (Count)
system.cpu.branchPred.mispredictDueToBTBMiss_0::Return            7      2.55%      6.57% # Number of committed branches that were mispredicted because of a BTB miss. (Count)
system.cpu.branchPred.mispredictDueToBTBMiss_0::CallDirect           82     29.93%     36.50% # Number of committed branches that were mispredicted because of a BTB miss. (Count)
system.cpu.branchPred.mispredictDueToBTBMiss_0::CallIndirect            3      1.09%     37.59% # Number of committed branches that were mispredicted because of a BTB miss. (Count)
system.cpu.branchPred.mispredictDueToBTBMiss_0::DirectCond          117     42.70%     80.29% # Number of committed branches that were mispredicted because of a BTB miss. (Count)
system.cpu.branchPred.mispredictDueToBTBMiss_0::DirectUncond           45     16.42%     96.72% # Number of committed branches that were mispredicted because of a BTB miss. (Count)
system.cpu.branchPred.mispredictDueToBTBMiss_0::IndirectCond            0      0.00%     96.72% # Number of committed branches that were mispredicted because of a BTB miss. (Count)
system.cpu.branchPred.mispredictDueToBTBMiss_0::IndirectUncond            9      3.28%    100.00% # Number of committed branches that were mispredicted because of a BTB miss. (Count)
system.cpu.branchPred.mispredictDueToBTBMiss_0::total          274                       # Number of committed branches that were mispredicted because of a BTB miss. (Count)
system.cpu.branchPred.targetProvider_0::NoTarget         6290     56.30%     56.30% # The component providing the target for taken branches (Count)
system.cpu.branchPred.targetProvider_0::BTB         3552     31.79%     88.09% # The component providing the target for taken branches (Count)
system.cpu.branchPred.targetProvider_0::RAS          763      6.83%     94.92% # The component providing the target for taken branches (Count)
system.cpu.branchPred.targetProvider_0::Indirect          568      5.08%    100.00% # The component providing the target for taken branches (Count)
system.cpu.branchPred.targetProvider_0::total        11173                       # The component providing the target for taken branches (Count)
system.cpu.branchPred.targetWrong_0::NoBranch          347     91.32%     91.32% # Number of branches where the target was incorrect or not available at prediction time. (Count)
system.cpu.branchPred.targetWrong_0::Return           26      6.84%     98.16% # Number of branches where the target was incorrect or not available at prediction time. (Count)
system.cpu.branchPred.targetWrong_0::CallDirect            7      1.84%    100.00% # Number of branches where the target was incorrect or not available at prediction time. (Count)
system.cpu.branchPred.targetWrong_0::CallIndirect            0      0.00%    100.00% # Number of branches where the target was incorrect or not available at prediction time. (Count)
system.cpu.branchPred.targetWrong_0::DirectCond            0      0.00%    100.00% # Number of branches where the target was incorrect or not available at prediction time. (Count)
system.cpu.branchPred.targetWrong_0::DirectUncond            0      0.00%    100.00% # Number of branches where the target was incorrect or not available at prediction time. (Count)
system.cpu.branchPred.targetWrong_0::IndirectCond            0      0.00%    100.00% # Number of branches where the target was incorrect or not available at prediction time. (Count)
system.cpu.branchPred.targetWrong_0::IndirectUncond            0      0.00%    100.00% # Number of branches where the target was incorrect or not available at prediction time. (Count)
system.cpu.branchPred.targetWrong_0::total          380                       # Number of branches where the target was incorrect or not available at prediction time. (Count)
system.cpu.branchPred.condPredicted              7863                       # Number of conditional branches predicted (Count)
system.cpu.branchPred.condPredictedTaken         2333                       # Number of conditional branches predicted as taken (Count)
system.cpu.branchPred.condIncorrect               391                       # Number of conditional branches incorrect (Count)
system.cpu.branchPred.predTakenBTBMiss            157                       # Number of branches predicted taken but missed in BTB (Count)
system.cpu.branchPred.BTBLookups                11173                       # Number of BTB lookups (Count)
system.cpu.branchPred.BTBUpdates                  335                       # Number of BTB updates (Count)
system.cpu.branchPred.BTBHits                    4278                       # Number of BTB hits (Count)
system.cpu.branchPred.BTBHitRatio            0.382887                       # BTB Hit Ratio (Ratio)
system.cpu.branchPred.BTBMispredicted             244                       # Number BTB mispredictions. No target found or target wrong (Count)
system.cpu.branchPred.indirectLookups             596                       # Number of indirect predictor lookups. (Count)
system.cpu.branchPred.indirectHits                568                       # Number of indirect target hits. (Count)
system.cpu.branchPred.indirectMisses               28                       # Number of indirect misses. (Count)
system.cpu.branchPred.indirectMispredicted            0                       # Number of mispredicted indirect branches. (Count)
system.cpu.branchPred.btb.lookups::NoBranch           16      0.14%      0.14% # Number of BTB lookups (Count)
system.cpu.branchPred.btb.lookups::Return          765      6.85%      6.99% # Number of BTB lookups (Count)
system.cpu.branchPred.btb.lookups::CallDirect          883      7.90%     14.89% # Number of BTB lookups (Count)
system.cpu.branchPred.btb.lookups::CallIndirect           13      0.12%     15.01% # Number of BTB lookups (Count)
system.cpu.branchPred.btb.lookups::DirectCond         7847     70.23%     85.24% # Number of BTB lookups (Count)
system.cpu.branchPred.btb.lookups::DirectUncond         1066      9.54%     94.78% # Number of BTB lookups (Count)
system.cpu.branchPred.btb.lookups::IndirectCond            0      0.00%     94.78% # Number of BTB lookups (Count)
system.cpu.branchPred.btb.lookups::IndirectUncond          583      5.22%    100.00% # Number of BTB lookups (Count)
system.cpu.branchPred.btb.lookups::total        11173                       # Number of BTB lookups (Count)
system.cpu.branchPred.btb.misses::NoBranch           16      0.23%      0.23% # Number of BTB misses (Count)
system.cpu.branchPred.btb.misses::Return          765     11.09%     11.33% # Number of BTB misses (Count)
system.cpu.branchPred.btb.misses::CallDirect          274      3.97%     15.30% # Number of BTB misses (Count)
system.cpu.branchPred.btb.misses::CallIndirect           13      0.19%     15.49% # Number of BTB misses (Count)
system.cpu.branchPred.btb.misses::DirectCond         5093     73.87%     89.35% # Number of BTB misses (Count)
system.cpu.branchPred.btb.misses::DirectUncond          151      2.19%     91.54% # Number of BTB misses (Count)
system.cpu.branchPred.btb.misses::IndirectCond            0      0.00%     91.54% # Number of BTB misses (Count)
system.cpu.branchPred.btb.misses::IndirectUncond          583      8.46%    100.00% # Number of BTB misses (Count)
system.cpu.branchPred.btb.misses::total          6895                       # Number of BTB misses (Count)
system.cpu.branchPred.btb.updates::NoBranch            0      0.00%      0.00% # Number of BTB updates (Count)
system.cpu.branchPred.btb.updates::Return            0      0.00%      0.00% # Number of BTB updates (Count)
system.cpu.branchPred.btb.updates::CallDirect           82     24.48%     24.48% # Number of BTB updates (Count)
system.cpu.branchPred.btb.updates::CallIndirect            0      0.00%     24.48% # Number of BTB updates (Count)
system.cpu.branchPred.btb.updates::DirectCond          208     62.09%     86.57% # Number of BTB updates (Count)
system.cpu.branchPred.btb.updates::DirectUncond           45     13.43%    100.00% # Number of BTB updates (Count)
system.cpu.branchPred.btb.updates::IndirectCond            0      0.00%    100.00% # Number of BTB updates (Count)
system.cpu.branchPred.btb.updates::IndirectUncond            0      0.00%    100.00% # Number of BTB updates (Count)
system.cpu.branchPred.btb.updates::total          335                       # Number of BTB updates (Count)
system.cpu.branchPred.btb.mispredict::NoBranch            0      0.00%      0.00% # Number of BTB mispredictions. No target found or target wrong. (Count)
system.cpu.branchPred.btb.mispredict::Return            0      0.00%      0.00% # Number of BTB mispredictions. No target found or target wrong. (Count)
system.cpu.branchPred.btb.mispredict::CallDirect           82     24.48%     24.48% # Number of BTB mispredictions. No target found or target wrong. (Count)
system.cpu.branchPred.btb.mispredict::CallIndirect            0      0.00%     24.48% # Number of BTB mispredictions. No target found or target wrong. (Count)
system.cpu.branchPred.btb.mispredict::DirectCond          208     62.09%     86.57% # Number of BTB mispredictions. No target found or target wrong. (Count)
system.cpu.branchPred.btb.mispredict::DirectUncond           45     13.43%    100.00% # Number of BTB mispredictions. No target found or target wrong. (Count)
system.cpu.branchPred.btb.mispredict::IndirectCond            0      0.00%    100.00% # Number of BTB mispredictions. No target found or target wrong. (Count)
system.cpu.branchPred.btb.mispredict::IndirectUncond            0      0.00%    100.00% # Number of BTB mispredictions. No target found or target wrong. (Count)
system.cpu.branchPred.btb.mispredict::total          335                       # Number of BTB mispredictions. No target found or target wrong. (Count)
system.cpu.branchPred.btb.power_state.pwrStateResidencyTicks::UNDEFINED   2000000000                       # Cumulative time (in ticks) in various power states (Tick)
system.cpu.branchPred.indirectBranchPred.lookups          596                       # Number of lookups (Count)
system.cpu.branchPred.indirectBranchPred.hits          568                       # Number of hits of a tag (Count)
system.cpu.branchPred.indirectBranchPred.misses           28                       # Number of misses (Count)
system.cpu.branchPred.indirectBranchPred.targetRecords           12                       # Number of targets that where recorded/installed in the cache (Count)
system.cpu.branchPred.indirectBranchPred.indirectRecords          608                       # Number of indirect branches/calls recorded in the indirect hist (Count)
system.cpu.branchPred.indirectBranchPred.speculativeOverflows           12                       # Number of times more than the allowed capacity for speculative branches/calls where in flight and destroy the path history (Count)
system.cpu.branchPred.ras.pushes                  987                       # Number of times a PC was pushed onto the RAS (Count)
system.cpu.branchPred.ras.pops                    983                       # Number of times a PC was poped from the RAS (Count)
system.cpu.branchPred.ras.squashes                309                       # Number of times the stack operation was squashed due to wrong speculation. (Count)
system.cpu.branchPred.ras.used                    673                       # Number of times the RAS is the provider (Count)
system.cpu.branchPred.ras.correct                 666                       # Number of times the RAS is the provider and the prediction is correct (Count)
system.cpu.branchPred.ras.incorrect                 7                       # Number of times the RAS is the provider and the prediction is wrong (Count)
system.cpu.branchPredictor.lookups_0::NoBranch            0                       # Number of BP lookups (Count)
system.cpu.branchPredictor.lookups_0::Return            0                       # Number of BP lookups (Count)
system.cpu.branchPredictor.lookups_0::CallDirect            0                       # Number of BP lookups (Count)
system.cpu.branchPredictor.lookups_0::CallIndirect            0                       # Number of BP lookups (Count)
system.cpu.branchPredictor.lookups_0::DirectCond            0                       # Number of BP lookups (Count)
system.cpu.branchPredictor.lookups_0::DirectUncond            0                       # Number of BP lookups (Count)
system.cpu.branchPredictor.lookups_0::IndirectCond            0                       # Number of BP lookups (Count)
system.cpu.branchPredictor.lookups_0::IndirectUncond            0                       # Number of BP lookups (Count)
system.cpu.branchPredictor.lookups_0::total            0                       # Number of BP lookups (Count)
system.cpu.branchPredictor.squashes_0::NoBranch            0                       # Number of branches that got squashed (completely removed) as an earlier branch was mispredicted. (Count)
system.cpu.branchPredictor.squashes_0::Return            0                       # Number of branches that got squashed (completely removed) as an earlier branch was mispredicted. (Count)
system.cpu.branchPredictor.squashes_0::CallDirect            0                       # Number of branches that got squashed (completely removed) as an earlier branch was mispredicted. (Count)
system.cpu.branchPredictor.squashes_0::CallIndirect            0                       # Number of branches that got squashed (completely removed) as an earlier branch was mispredicted. (Count)
system.cpu.branchPredictor.squashes_0::DirectCond            0                       # Number of branches that got squashed (completely removed) as an earlier branch was mispredicted. (Count)
system.cpu.branchPredictor.squashes_0::DirectUncond            0                       # Number of branches that got squashed (completely removed) as an earlier branch was mispredicted. (Count)
system.cpu.branchPredictor.squashes_0::IndirectCond            0                       # Number of branches that got squashed (completely removed) as an earlier branch was mispredicted. (Count)
system.cpu.branchPredictor.squashes_0::IndirectUncond            0                       # Number of branches that got squashed (completely removed) as an earlier branch was mispredicted. (Count)
system.cpu.branchPredictor.squashes_0::total            0                       # Number of branches that got squashed (completely removed) as an earlier branch was mispredicted. (Count)
system.cpu.branchPredictor.corrected_0::NoBranch            0                       # Number of branches that got corrected but not yet commited. Branches get corrected by decode or after execute. Also a branch misprediction can be detected out-of-order. Therefore, a corrected branch might not end up beeing committed in case an even earlier branch was mispredicted (Count)
system.cpu.branchPredictor.corrected_0::Return            0                       # Number of branches that got corrected but not yet commited. Branches get corrected by decode or after execute. Also a branch misprediction can be detected out-of-order. Therefore, a corrected branch might not end up beeing committed in case an even earlier branch was mispredicted (Count)
system.cpu.branchPredictor.corrected_0::CallDirect            0                       # Number of branches that got corrected but not yet commited. Branches get corrected by decode or after execute. Also a branch misprediction can be detected out-of-order. Therefore, a corrected branch might not end up beeing committed in case an even earlier branch was mispredicted (Count)
system.cpu.branchPredictor.corrected_0::CallIndirect            0                       # Number of branches that got corrected but not yet commited. Branches get corrected by decode or after execute. Also a branch misprediction can be detected out-of-order. Therefore, a corrected branch might not end up beeing committed in case an even earlier branch was mispredicted (Count)
system.cpu.branchPredictor.corrected_0::DirectCond            0                       # Number of branches that got corrected but not yet commited. Branches get corrected by decode or after execute. Also a branch misprediction can be detected out-of-order. Therefore, a corrected branch might not end up beeing committed in case an even earlier branch was mispredicted (Count)
system.cpu.branchPredictor.corrected_0::DirectUncond            0                       # Number of branches that got corrected but not yet commited. Branches get corrected by decode or after execute. Also a branch misprediction can be detected out-of-order. Therefore, a corrected branch might not end up beeing committed in case an even earlier branch was mispredicted (Count)
system.cpu.branchPredictor.corrected_0::IndirectCond            0                       # Number of branches that got corrected but not yet commited. Branches get corrected by decode or after execute. Also a branch misprediction can be detected out-of-order. Therefore, a corrected branch might not end up beeing committed in case an even earlier branch was mispredicted (Count)
system.cpu.branchPredictor.corrected_0::IndirectUncond            0                       # Number of branches that got corrected but not yet commited. Branches get corrected by decode or after execute. Also a branch misprediction can be detected out-of-order. Therefore, a corrected branch might not end up beeing committed in case an even earlier branch was mispredicted (Count)
system.cpu.branchPredictor.corrected_0::total            0                       # Number of branches that got corrected but not yet commited. Branches get corrected by decode or after execute. Also a branch misprediction can be detected out-of-order. Therefore, a corrected branch might not end up beeing committed in case an even earlier branch was mispredicted (Count)
system.cpu.branchPredictor.earlyResteers_0::NoBranch            0                       # Number of branches that got redirected after decode. (Count)
system.cpu.branchPredictor.earlyResteers_0::Return            0                       # Number of branches that got redirected after decode. (Count)
system.cpu.branchPredictor.earlyResteers_0::CallDirect            0                       # Number of branches that got redirected after decode. (Count)
system.cpu.branchPredictor.earlyResteers_0::CallIndirect            0                       # Number of branches that got redirected after decode. (Count)
system.cpu.branchPredictor.earlyResteers_0::DirectCond            0                       # Number of branches that got redirected after decode. (Count)
system.cpu.branchPredictor.earlyResteers_0::DirectUncond            0                       # Number of branches that got redirected after decode. (Count)
system.cpu.branchPredictor.earlyResteers_0::IndirectCond            0                       # Number of branches that got redirected after decode. (Count)
system.cpu.branchPredictor.earlyResteers_0::IndirectUncond            0                       # Number of branches that got redirected after decode. (Count)
system.cpu.branchPredictor.earlyResteers_0::total            0                       # Number of branches that got redirected after decode. (Count)
system.cpu.branchPredictor.committed_0::NoBranch            0                       # Number of branches finally committed  (Count)
system.cpu.branchPredictor.committed_0::Return            0                       # Number of branches finally committed  (Count)
system.cpu.branchPredictor.committed_0::CallDirect            0                       # Number of branches finally committed  (Count)
system.cpu.branchPredictor.committed_0::CallIndirect            0                       # Number of branches finally committed  (Count)
system.cpu.branchPredictor.committed_0::DirectCond            0                       # Number of branches finally committed  (Count)
system.cpu.branchPredictor.committed_0::DirectUncond            0                       # Number of branches finally committed  (Count)
system.cpu.branchPredictor.committed_0::IndirectCond            0                       # Number of branches finally committed  (Count)
system.cpu.branchPredictor.committed_0::IndirectUncond            0                       # Number of branches finally committed  (Count)
system.cpu.branchPredictor.committed_0::total            0                       # Number of branches finally committed  (Count)
system.cpu.branchPredictor.mispredicted_0::NoBranch            0                       # Number of committed branches that were mispredicted. (Count)
system.cpu.branchPredictor.mispredicted_0::Return            0                       # Number of committed branches that were mispredicted. (Count)
system.cpu.branchPredictor.mispredicted_0::CallDirect            0                       # Number of committed branches that were mispredicted. (Count)
system.cpu.branchPredictor.mispredicted_0::CallIndirect            0                       # Number of committed branches that were mispredicted. (Count)
system.cpu.branchPredictor.mispredicted_0::DirectCond            0                       # Number of committed branches that were mispredicted. (Count)
system.cpu.branchPredictor.mispredicted_0::DirectUncond            0                       # Number of committed branches that were mispredicted. (Count)
system.cpu.branchPredictor.mispredicted_0::IndirectCond            0                       # Number of committed branches that were mispredicted. (Count)
system.cpu.branchPredictor.mispredicted_0::IndirectUncond            0                       # Number of committed branches that were mispredicted. (Count)
system.cpu.branchPredictor.mispredicted_0::total            0                       # Number of committed branches that were mispredicted. (Count)
system.cpu.branchPredictor.mispredictDueToPredictor_0::NoBranch            0                       # Number of committed branches that were mispredicted by the predictor. (Count)
system.cpu.branchPredictor.mispredictDueToPredictor_0::Return            0                       # Number of committed branches that were mispredicted by the predictor. (Count)
system.cpu.branchPredictor.mispredictDueToPredictor_0::CallDirect            0                       # Number of committed branches that were mispredicted by the predictor. (Count)
system.cpu.branchPredictor.mispredictDueToPredictor_0::CallIndirect            0                       # Number of committed branches that were mispredicted by the predictor. (Count)
system.cpu.branchPredictor.mispredictDueToPredictor_0::DirectCond            0                       # Number of committed branches that were mispredicted by the predictor. (Count)
system.cpu.branchPredictor.mispredictDueToPredictor_0::DirectUncond            0                       # Number of committed branches that were mispredicted by the predictor. (Count)
system.cpu.branchPredictor.mispredictDueToPredictor_0::IndirectCond            0                       # Number of committed branches that were mispredicted by the predictor. (Count)
system.cpu.branchPredictor.mispredictDueToPredictor_0::IndirectUncond            0                       # Number of committed branches that were mispredicted by the predictor. (Count)
system.cpu.branchPredictor.mispredictDueToPredictor_0::total            0                       # Number of committed branches that were mispredicted by the predictor. (Count)
system.cpu.branchPredictor.mispredictDueToBTBMiss_0::NoBranch            0                       # Number of committed branches that were mispredicted because of a BTB miss. (Count)
system.cpu.branchPredictor.mispredictDueToBTBMiss_0::Return            0                       # Number of committed branches that were mispredicted because of a BTB miss. (Count)
system.cpu.branchPredictor.mispredictDueToBTBMiss_0::CallDirect            0                       # Number of committed branches that were mispredicted because of a BTB miss. (Count)
system.cpu.branchPredictor.mispredictDueToBTBMiss_0::CallIndirect            0                       # Number of committed branches that were mispredicted because of a BTB miss. (Count)
system.cpu.branchPredictor.mispredictDueToBTBMiss_0::DirectCond            0                       # Number of committed branches that were mispredicted because of a BTB miss. (Count)
system.cpu.branchPredictor.mispredictDueToBTBMiss_0::DirectUncond            0                       # Number of committed branches that were mispredicted because of a BTB miss. (Count)
system.cpu.branchPredictor.mispredictDueToBTBMiss_0::IndirectCond            0                       # Number of committed branches that were mispredicted because of a BTB miss. (Count)
system.cpu.branchPredictor.mispredictDueToBTBMiss_0::IndirectUncond            0                       # Number of committed branches that were mispredicted because of a BTB miss. (Count)
system.cpu.branchPredictor.mispredictDueToBTBMiss_0::total            0                       # Number of committed branches that were mispredicted because of a BTB miss. (Count)
system.cpu.branchPredictor.targetProvider_0::NoTarget            0                       # The component providing the target for taken branches (Count)
system.cpu.branchPredictor.targetProvider_0::BTB            0                       # The component providing the target for taken branches (Count)
system.cpu.branchPredictor.targetProvider_0::RAS            0                       # The component providing the target for taken branches (Count)
system.cpu.branchPredictor.targetProvider_0::Indirect            0                       # The component providing the target for taken branches (Count)
system.cpu.branchPredictor.targetProvider_0::total            0                       # The component providing the target for taken branches (Count)
system.cpu.branchPredictor.targetWrong_0::NoBranch            0                       # Number of branches where the target was incorrect or not available at prediction time. (Count)
system.cpu.branchPredictor.targetWrong_0::Return            0                       # Number of branches where the target was incorrect or not available at prediction time. (Count)
system.cpu.branchPredictor.targetWrong_0::CallDirect            0                       # Number of branches where the target was incorrect or not available at prediction time. (Count)
system.cpu.branchPredictor.targetWrong_0::CallIndirect            0                       # Number of branches where the target was incorrect or not available at prediction time. (Count)
system.cpu.branchPredictor.targetWrong_0::DirectCond            0                       # Number of branches where the target was incorrect or not available at prediction time. (Count)
system.cpu.branchPredictor.targetWrong_0::DirectUncond            0                       # Number of branches where the target was incorrect or not available at prediction time. (Count)
system.cpu.branchPredictor.targetWrong_0::IndirectCond            0                       # Number of branches where the target was incorrect or not available at prediction time. (Count)
system.cpu.branchPredictor.targetWrong_0::IndirectUncond            0                       # Number of branches where the target was incorrect or not available at prediction time. (Count)
system.cpu.branchPredictor.targetWrong_0::total            0                       # Number of branches where the target was incorrect or not available at prediction time. (Count)
system.cpu.branchPredictor.condPredicted            0                       # Number of conditional branches predicted (Count)
system.cpu.branchPredictor.condPredictedTaken            0                       # Number of conditional branches predicted as taken (Count)
system.cpu.branchPredictor.condIncorrect            0                       # Number of conditional branches incorrect (Count)
system.cpu.branchPredictor.predTakenBTBMiss            0                       # Number of branches predicted taken but missed in BTB (Count)
system.cpu.branchPredictor.BTBLookups               0                       # Number of BTB lookups (Count)
system.cpu.branchPredictor.BTBUpdates               0                       # Number of BTB updates (Count)
system.cpu.branchPredictor.BTBHits                  0                       # Number of BTB hits (Count)
system.cpu.branchPredictor.BTBHitRatio            nan                       # BTB Hit Ratio (Ratio)
system.cpu.branchPredictor.BTBMispredicted            0                       # Number BTB mispredictions. No target found or target wrong (Count)
system.cpu.branchPredictor.indirectLookups            0                       # Number of indirect predictor lookups. (Count)
system.cpu.branchPredictor.indirectHits             0                       # Number of indirect target hits. (Count)
system.cpu.branchPredictor.indirectMisses            0                       # Number of indirect misses. (Count)
system.cpu.branchPredictor.indirectMispredicted            0                       # Number of mispredicted indirect branches. (Count)
system.cpu.branchPredictor.btb.lookups::NoBranch            0                       # Number of BTB lookups (Count)
system.cpu.branchPredictor.btb.lookups::Return            0                       # Number of BTB lookups (Count)
system.cpu.branchPredictor.btb.lookups::CallDirect            0                       # Number of BTB lookups (Count)
system.cpu.branchPredictor.btb.lookups::CallIndirect            0                       # Number of BTB lookups (Count)
system.cpu.branchPredictor.btb.lookups::DirectCond            0                       # Number of BTB lookups (Count)
system.cpu.branchPredictor.btb.lookups::DirectUncond            0                       # Number of BTB lookups (Count)
system.cpu.branchPredictor.btb.lookups::IndirectCond            0                       # Number of BTB lookups (Count)
system.cpu.branchPredictor.btb.lookups::IndirectUncond            0                       # Number of BTB lookups (Count)
system.cpu.branchPredictor.btb.lookups::total            0                       # Number of BTB lookups (Count)
system.cpu.branchPredictor.btb.misses::NoBranch            0                       # Number of BTB misses (Count)
system.cpu.branchPredictor.btb.misses::Return            0                       # Number of BTB misses (Count)
system.cpu.branchPredictor.btb.misses::CallDirect            0                       # Number of BTB misses (Count)
system.cpu.branchPredictor.btb.misses::CallIndirect            0                       # Number of BTB misses (Count)
system.cpu.branchPredictor.btb.misses::DirectCond            0                       # Number of BTB misses (Count)
system.cpu.branchPredictor.btb.misses::DirectUncond            0                       # Number of BTB misses (Count)
system.cpu.branchPredictor.btb.misses::IndirectCond            0                       # Number of BTB misses (Count)
system.cpu.branchPredictor.btb.misses::IndirectUncond            0                       # Number of BTB misses (Count)
system.cpu.branchPredictor.btb.misses::total            0                       # Number of BTB misses (Count)
system.cpu.branchPredictor.btb.updates::NoBranch            0                       # Number of BTB updates (Count)
system.cpu.branchPredictor.btb.updates::Return            0                       # Number of BTB updates (Count)
system.cpu.branchPredictor.btb.updates::CallDirect            0                       # Number of BTB updates (Count)
system.cpu.branchPredictor.btb.updates::CallIndirect            0                       # Number of BTB updates (Count)
system.cpu.branchPredictor.btb.updates::DirectCond            0                       # Number of BTB updates (Count)
system.cpu.branchPredictor.btb.updates::DirectUncond            0                       # Number of BTB updates (Count)
system.cpu.branchPredictor.btb.updates::IndirectCond            0                       # Number of BTB updates (Count)
system.cpu.branchPredictor.btb.updates::IndirectUncond            0                       # Number of BTB updates (Count)
system.cpu.branchPredictor.btb.updates::total            0                       # Number of BTB updates (Count)
system.cpu.branchPredictor.btb.mispredict::NoBranch            0                       # Number of BTB mispredictions. No target found or target wrong. (Count)
system.cpu.branchPredictor.btb.mispredict::Return            0                       # Number of BTB mispredictions. No target found or target wrong. (Count)
system.cpu.branchPredictor.btb.mispredict::CallDirect            0                       # Number of BTB mispredictions. No target found or target wrong. (Count)
system.cpu.branchPredictor.btb.mispredict::CallIndirect            0                       # Number of BTB mispredictions. No target found or target wrong. (Count)
system.cpu.branchPredictor.btb.mispredict::DirectCond            0                       # Number of BTB mispredictions. No target found or target wrong. (Count)
system.cpu.branchPredictor.btb.mispredict::DirectUncond            0                       # Number of BTB mispredictions. No target found or target wrong. (Count)
system.cpu.branchPredictor.btb.mispredict::IndirectCond            0                       # Number of BTB mispredictions. No target found or target wrong. (Count)
system.cpu.branchPredictor.btb.mispredict::IndirectUncond            0                       # Number of BTB mispredictions. No target found or target wrong. (Count)
system.cpu.branchPredictor.btb.mispredict::total            0                       # Number of BTB mispredictions. No target found or target wrong. (Count)
system.cpu.branchPredictor.btb.power_state.pwrStateResidencyTicks::UNDEFINED   2000000000                       # Cumulative time (in ticks) in various power states (Tick)
system.cpu.branchPredictor.indirectBranchPred.lookups            0                       # Number of lookups (Count)
system.cpu.branchPredictor.indirectBranchPred.hits            0                       # Number of hits of a tag (Count)
system.cpu.branchPredictor.indirectBranchPred.misses            0                       # Number of misses (Count)
system.cpu.branchPredictor.indirectBranchPred.targetRecords            0                       # Number of targets that where recorded/installed in the cache (Count)
system.cpu.branchPredictor.indirectBranchPred.indirectRecords            0                       # Number of indirect branches/calls recorded in the indirect hist (Count)
system.cpu.branchPredictor.indirectBranchPred.speculativeOverflows            0                       # Number of times more than the allowed capacity for speculative branches/calls where in flight and destroy the path history (Count)
system.cpu.branchPredictor.ras.pushes               0                       # Number of times a PC was pushed onto the RAS (Count)
system.cpu.branchPredictor.ras.pops                 0                       # Number of times a PC was poped from the RAS (Count)
system.cpu.branchPredictor.ras.squashes             0                       # Number of times the stack operation was squashed due to wrong speculation. (Count)
system.cpu.branchPredictor.ras.used                 0                       # Number of times the RAS is the provider (Count)
system.cpu.branchPredictor.ras.correct              0                       # Number of times the RAS is the provider and the prediction is correct (Count)
system.cpu.branchPredictor.ras.incorrect            0                       # Number of times the RAS is the provider and the prediction is wrong (Count)
system.cpu.commitStats0.numInsts                40443                       # Number of instructions committed (thread level) (Count)
system.cpu.commitStats0.numOps                  40454                       # Number of ops (including micro ops) committed (thread level) (Count)
system.cpu.commitStats0.numInstsNotNOP              0                       # Number of instructions committed excluding NOPs or prefetches (Count)
system.cpu.commitStats0.numOpsNotNOP                0                       # Number of Ops (including micro ops) Simulated (Count)
system.cpu.commitStats0.cpi                  1.186831                       # CPI: cycles per instruction (thread level) ((Cycle/Count))
system.cpu.commitStats0.ipc                  0.842580                       # IPC: instructions per cycle (thread level) ((Count/Cycle))
system.cpu.commitStats0.numMemRefs                  0                       # Number of memory references committed (Count)
system.cpu.commitStats0.numFpInsts                  0                       # Number of float instructions (Count)
system.cpu.commitStats0.numIntInsts                 0                       # Number of integer instructions (Count)
system.cpu.commitStats0.numLoadInsts                0                       # Number of load instructions (Count)
system.cpu.commitStats0.numStoreInsts               0                       # Number of store instructions (Count)
system.cpu.commitStats0.numVecInsts                 0                       # Number of vector instructions (Count)
system.cpu.commitStats0.committedInstType::No_OpClass           31      0.08%      0.08% # Class of committed instruction. (Count)
system.cpu.commitStats0.committedInstType::IntAlu        31764     78.52%     78.60% # Class of committed instruction. (Count)
system.cpu.commitStats0.committedInstType::IntMult            4      0.01%     78.61% # Class of committed instruction. (Count)
system.cpu.commitStats0.committedInstType::IntDiv            3      0.01%     78.61% # Class of committed instruction. (Count)
system.cpu.commitStats0.committedInstType::FloatAdd            0      0.00%     78.61% # Class of committed instruction. (Count)
system.cpu.commitStats0.committedInstType::FloatCmp            0      0.00%     78.61% # Class of committed instruction. (Count)
system.cpu.commitStats0.committedInstType::FloatCvt            0      0.00%     78.61% # Class of committed instruction. (Count)
system.cpu.commitStats0.committedInstType::FloatMult            0      0.00%     78.61% # Class of committed instruction. (Count)
system.cpu.commitStats0.committedInstType::FloatMultAcc            0      0.00%     78.61% # Class of committed instruction. (Count)
system.cpu.commitStats0.committedInstType::FloatDiv            0      0.00%     78.61% # Class of committed instruction. (Count)
system.cpu.commitStats0.committedInstType::FloatMisc            0      0.00%     78.61% # Class of committed instruction. (Count)
system.cpu.commitStats0.committedInstType::FloatSqrt            0      0.00%     78.61% # Class of committed instruction. (Count)
system.cpu.commitStats0.committedInstType::SimdAdd            0      0.00%     78.61% # Class of committed instruction. (Count)
system.cpu.commitStats0.committedInstType::SimdAddAcc            0      0.00%     78.61% # Class of committed instruction. (Count)
system.cpu.commitStats0.committedInstType::SimdAlu            0      0.00%     78.61% # Class of committed instruction. (Count)
system.cpu.commitStats0.committedInstType::SimdCmp            0      0.00%     78.61% # Class of committed instruction. (Count)
system.cpu.commitStats0.committedInstType::SimdCvt            0      0.00%     78.61% # Class of committed instruction. (Count)
system.cpu.commitStats0.committedInstType::SimdMisc            0      0.00%     78.61% # Class of committed instruction. (Count)
system.cpu.commitStats0.committedInstType::SimdMult            0      0.00%     78.61% # Class of committed instruction. (Count)
system.cpu.commitStats0.committedInstType::SimdMultAcc            0      0.00%     78.61% # Class of committed instruction. (Count)
system.cpu.commitStats0.committedInstType::SimdMatMultAcc            0      0.00%     78.61% # Class of committed instruction. (Count)
system.cpu.commitStats0.committedInstType::SimdShift            0      0.00%     78.61% # Class of committed instruction. (Count)
system.cpu.commitStats0.committedInstType::SimdShiftAcc            0      0.00%     78.61% # Class of committed instruction. (Count)
system.cpu.commitStats0.committedInstType::SimdDiv            0      0.00%     78.61% # Class of committed instruction. (Count)
system.cpu.commitStats0.committedInstType::SimdSqrt            0      0.00%     78.61% # Class of committed instruction. (Count)
system.cpu.commitStats0.committedInstType::SimdFloatAdd            0      0.00%     78.61% # Class of committed instruction. (Count)
system.cpu.commitStats0.committedInstType::SimdFloatAlu            0      0.00%     78.61% # Class of committed instruction. (Count)
system.cpu.commitStats0.committedInstType::SimdFloatCmp            0      0.00%     78.61% # Class of committed instruction. (Count)
system.cpu.commitStats0.committedInstType::SimdFloatCvt            0      0.00%     78.61% # Class of committed instruction. (Count)
system.cpu.commitStats0.committedInstType::SimdFloatDiv            0      0.00%     78.61% # Class of committed instruction. (Count)
system.cpu.commitStats0.committedInstType::SimdFloatMisc            0      0.00%     78.61% # Class of committed instruction. (Count)
system.cpu.commitStats0.committedInstType::SimdFloatMult            0      0.00%     78.61% # Class of committed instruction. (Count)
system.cpu.commitStats0.committedInstType::SimdFloatMultAcc            0      0.00%     78.61% # Class of committed instruction. (Count)
system.cpu.commitStats0.committedInstType::SimdFloatMatMultAcc            0      0.00%     78.61% # Class of committed instruction. (Count)
system.cpu.commitStats0.committedInstType::SimdFloatSqrt            0      0.00%     78.61% # Class of committed instruction. (Count)
system.cpu.commitStats0.committedInstType::SimdReduceAdd            0      0.00%     78.61% # Class of committed instruction. (Count)
system.cpu.commitStats0.committedInstType::SimdReduceAlu            0      0.00%     78.61% # Class of committed instruction. (Count)
system.cpu.commitStats0.committedInstType::SimdReduceCmp            0      0.00%     78.61% # Class of committed instruction. (Count)
system.cpu.commitStats0.committedInstType::SimdFloatReduceAdd            0      0.00%     78.61% # Class of committed instruction. (Count)
system.cpu.commitStats0.committedInstType::SimdFloatReduceCmp            0      0.00%     78.61% # Class of committed instruction. (Count)
system.cpu.commitStats0.committedInstType::SimdAes            0      0.00%     78.61% # Class of committed instruction. (Count)
system.cpu.commitStats0.committedInstType::SimdAesMix            0      0.00%     78.61% # Class of committed instruction. (Count)
system.cpu.commitStats0.committedInstType::SimdSha1Hash            0      0.00%     78.61% # Class of committed instruction. (Count)
system.cpu.commitStats0.committedInstType::SimdSha1Hash2            0      0.00%     78.61% # Class of committed instruction. (Count)
system.cpu.commitStats0.committedInstType::SimdSha256Hash            0      0.00%     78.61% # Class of committed instruction. (Count)
system.cpu.commitStats0.committedInstType::SimdSha256Hash2            0      0.00%     78.61% # Class of committed instruction. (Count)
system.cpu.commitStats0.committedInstType::SimdShaSigma2            0      0.00%     78.61% # Class of committed instruction. (Count)
system.cpu.commitStats0.committedInstType::SimdShaSigma3            0      0.00%     78.61% # Class of committed instruction. (Count)
system.cpu.commitStats0.committedInstType::SimdPredAlu            0      0.00%     78.61% # Class of committed instruction. (Count)
system.cpu.commitStats0.committedInstType::Matrix            0      0.00%     78.61% # Class of committed instruction. (Count)
system.cpu.commitStats0.committedInstType::MatrixMov            0      0.00%     78.61% # Class of committed instruction. (Count)
system.cpu.commitStats0.committedInstType::MatrixOP            0      0.00%     78.61% # Class of committed instruction. (Count)
system.cpu.commitStats0.committedInstType::MemRead         6416     15.86%     94.47% # Class of committed instruction. (Count)
system.cpu.commitStats0.committedInstType::MemWrite         2236      5.53%    100.00% # Class of committed instruction. (Count)
system.cpu.commitStats0.committedInstType::FloatMemRead            0      0.00%    100.00% # Class of committed instruction. (Count)
system.cpu.commitStats0.committedInstType::FloatMemWrite            0      0.00%    100.00% # Class of committed instruction. (Count)
system.cpu.commitStats0.committedInstType::IprAccess            0      0.00%    100.00% # Class of committed instruction. (Count)
system.cpu.commitStats0.committedInstType::InstPrefetch            0      0.00%    100.00% # Class of committed instruction. (Count)
system.cpu.commitStats0.committedInstType::SimdUnitStrideLoad            0      0.00%    100.00% # Class of committed instruction. (Count)
system.cpu.commitStats0.committedInstType::SimdUnitStrideStore            0      0.00%    100.00% # Class of committed instruction. (Count)
system.cpu.commitStats0.committedInstType::SimdUnitStrideMaskLoad            0      0.00%    100.00% # Class of committed instruction. (Count)
system.cpu.commitStats0.committedInstType::SimdUnitStrideMaskStore            0      0.00%    100.00% # Class of committed instruction. (Count)
system.cpu.commitStats0.committedInstType::SimdStridedLoad            0      0.00%    100.00% # Class of committed instruction. (Count)
system.cpu.commitStats0.committedInstType::SimdStridedStore            0      0.00%    100.00% # Class of committed instruction. (Count)
system.cpu.commitStats0.committedInstType::SimdIndexedLoad            0      0.00%    100.00% # Class of committed instruction. (Count)
system.cpu.commitStats0.committedInstType::SimdIndexedStore            0      0.00%    100.00% # Class of committed instruction. (Count)
system.cpu.commitStats0.committedInstType::SimdWholeRegisterLoad            0      0.00%    100.00% # Class of committed instruction. (Count)
system.cpu.commitStats0.committedInstType::SimdWholeRegisterStore            0      0.00%    100.00% # Class of committed instruction. (Count)
system.cpu.commitStats0.committedInstType::SimdUnitStrideFaultOnlyFirstLoad            0      0.00%    100.00% # Class of committed instruction. (Count)
system.cpu.commitStats0.committedInstType::SimdUnitStrideSegmentedLoad            0      0.00%    100.00% # Class of committed instruction. (Count)
system.cpu.commitStats0.committedInstType::SimdUnitStrideSegmentedStore            0      0.00%    100.00% # Class of committed instruction. (Count)
system.cpu.commitStats0.committedInstType::SimdUnitStrideSegmentedFaultOnlyFirstLoad            0      0.00%    100.00% # Class of committed instruction. (Count)
system.cpu.commitStats0.committedInstType::SimdStrideSegmentedLoad            0      0.00%    100.00% # Class of committed instruction. (Count)
system.cpu.commitStats0.committedInstType::SimdStrideSegmentedStore            0      0.00%    100.00% # Class of committed instruction. (Count)
system.cpu.commitStats0.committedInstType::SimdExt            0      0.00%    100.00% # Class of committed instruction. (Count)
system.cpu.commitStats0.committedInstType::SimdFloatExt            0      0.00%    100.00% # Class of committed instruction. (Count)
system.cpu.commitStats0.committedInstType::SimdConfig            0      0.00%    100.00% # Class of committed instruction. (Count)
system.cpu.commitStats0.committedInstType::total        40454                       # Class of committed instruction. (Count)
system.cpu.dcache.demandHits::cpu.data           7812                       # number of demand (read+write) hits (Count)
system.cpu.dcache.demandHits::total              7812                       # number of demand (read+write) hits (Count)
system.cpu.dcache.overallHits::cpu.data          7812                       # number of overall hits (Count)
system.cpu.dcache.overallHits::total             7812                       # number of overall hits (Count)
system.cpu.dcache.demandMisses::cpu.data          958                       # number of demand (read+write) misses (Count)
system.cpu.dcache.demandMisses::total             958                       # number of demand (read+write) misses (Count)
system.cpu.dcache.overallMisses::cpu.data          958                       # number of overall misses (Count)
system.cpu.dcache.overallMisses::total            958                       # number of overall misses (Count)
system.cpu.dcache.demandMissLatency::cpu.data    563296173                       # number of demand (read+write) miss ticks (Tick)
system.cpu.dcache.demandMissLatency::total    563296173                       # number of demand (read+write) miss ticks (Tick)
system.cpu.dcache.overallMissLatency::cpu.data    563296173                       # number of overall miss ticks (Tick)
system.cpu.dcache.overallMissLatency::total    563296173                       # number of overall miss ticks (Tick)
system.cpu.dcache.demandAccesses::cpu.data         8770                       # number of demand (read+write) accesses (Count)
system.cpu.dcache.demandAccesses::total          8770                       # number of demand (read+write) accesses (Count)
system.cpu.dcache.overallAccesses::cpu.data         8770                       # number of overall (read+write) accesses (Count)
system.cpu.dcache.overallAccesses::total         8770                       # number of overall (read+write) accesses (Count)
system.cpu.dcache.demandMissRate::cpu.data     0.109236                       # miss rate for demand accesses (Ratio)
system.cpu.dcache.demandMissRate::total      0.109236                       # miss rate for demand accesses (Ratio)
system.cpu.dcache.overallMissRate::cpu.data     0.109236                       # miss rate for overall accesses (Ratio)
system.cpu.dcache.overallMissRate::total     0.109236                       # miss rate for overall accesses (Ratio)
system.cpu.dcache.demandAvgMissLatency::cpu.data 587991.829854                       # average overall miss latency in ticks ((Tick/Count))
system.cpu.dcache.demandAvgMissLatency::total 587991.829854                       # average overall miss latency in ticks ((Tick/Count))
system.cpu.dcache.overallAvgMissLatency::cpu.data 587991.829854                       # average overall miss latency ((Tick/Count))
system.cpu.dcache.overallAvgMissLatency::total 587991.829854                       # average overall miss latency ((Tick/Count))
system.cpu.dcache.blockedCycles::no_mshrs            0                       # number of cycles access was blocked (Cycle)
system.cpu.dcache.blockedCycles::no_targets            0                       # number of cycles access was blocked (Cycle)
system.cpu.dcache.blockedCauses::no_mshrs            0                       # number of times access was blocked (Count)
system.cpu.dcache.blockedCauses::no_targets            0                       # number of times access was blocked (Count)
system.cpu.dcache.avgBlocked::no_mshrs            nan                       # average number of cycles each access was blocked ((Cycle/Count))
system.cpu.dcache.avgBlocked::no_targets          nan                       # average number of cycles each access was blocked ((Cycle/Count))
system.cpu.dcache.writebacks::writebacks          245                       # number of writebacks (Count)
system.cpu.dcache.writebacks::total               245                       # number of writebacks (Count)
system.cpu.dcache.demandMshrHits::cpu.data          179                       # number of demand (read+write) MSHR hits (Count)
system.cpu.dcache.demandMshrHits::total           179                       # number of demand (read+write) MSHR hits (Count)
system.cpu.dcache.overallMshrHits::cpu.data          179                       # number of overall MSHR hits (Count)
system.cpu.dcache.overallMshrHits::total          179                       # number of overall MSHR hits (Count)
system.cpu.dcache.demandMshrMisses::cpu.data          779                       # number of demand (read+write) MSHR misses (Count)
system.cpu.dcache.demandMshrMisses::total          779                       # number of demand (read+write) MSHR misses (Count)
system.cpu.dcache.overallMshrMisses::cpu.data          779                       # number of overall MSHR misses (Count)
system.cpu.dcache.overallMshrMisses::total          779                       # number of overall MSHR misses (Count)
system.cpu.dcache.demandMshrMissLatency::cpu.data    415128321                       # number of demand (read+write) MSHR miss ticks (Tick)
system.cpu.dcache.demandMshrMissLatency::total    415128321                       # number of demand (read+write) MSHR miss ticks (Tick)
system.cpu.dcache.overallMshrMissLatency::cpu.data    415128321                       # number of overall MSHR miss ticks (Tick)
system.cpu.dcache.overallMshrMissLatency::total    415128321                       # number of overall MSHR miss ticks (Tick)
system.cpu.dcache.demandMshrMissRate::cpu.data     0.088826                       # mshr miss ratio for demand accesses (Ratio)
system.cpu.dcache.demandMshrMissRate::total     0.088826                       # mshr miss ratio for demand accesses (Ratio)
system.cpu.dcache.overallMshrMissRate::cpu.data     0.088826                       # mshr miss ratio for overall accesses (Ratio)
system.cpu.dcache.overallMshrMissRate::total     0.088826                       # mshr miss ratio for overall accesses (Ratio)
system.cpu.dcache.demandAvgMshrMissLatency::cpu.data       532899                       # average overall mshr miss latency ((Tick/Count))
system.cpu.dcache.demandAvgMshrMissLatency::total       532899                       # average overall mshr miss latency ((Tick/Count))
system.cpu.dcache.overallAvgMshrMissLatency::cpu.data       532899                       # average overall mshr miss latency ((Tick/Count))
system.cpu.dcache.overallAvgMshrMissLatency::total       532899                       # average overall mshr miss latency ((Tick/Count))
system.cpu.dcache.replacements                    749                       # number of replacements (Count)
system.cpu.dcache.LoadLockedReq.hits::cpu.data            2                       # number of LoadLockedReq hits (Count)
system.cpu.dcache.LoadLockedReq.hits::total            2                       # number of LoadLockedReq hits (Count)
system.cpu.dcache.LoadLockedReq.misses::cpu.data            1                       # number of LoadLockedReq misses (Count)
system.cpu.dcache.LoadLockedReq.misses::total            1                       # number of LoadLockedReq misses (Count)
system.cpu.dcache.LoadLockedReq.missLatency::cpu.data       583338                       # number of LoadLockedReq miss ticks (Tick)
system.cpu.dcache.LoadLockedReq.missLatency::total       583338                       # number of LoadLockedReq miss ticks (Tick)
system.cpu.dcache.LoadLockedReq.accesses::cpu.data            3                       # number of LoadLockedReq accesses(hits+misses) (Count)
system.cpu.dcache.LoadLockedReq.accesses::total            3                       # number of LoadLockedReq accesses(hits+misses) (Count)
system.cpu.dcache.LoadLockedReq.missRate::cpu.data     0.333333                       # miss rate for LoadLockedReq accesses (Ratio)
system.cpu.dcache.LoadLockedReq.missRate::total     0.333333                       # miss rate for LoadLockedReq accesses (Ratio)
system.cpu.dcache.LoadLockedReq.avgMissLatency::cpu.data       583338                       # average LoadLockedReq miss latency ((Tick/Count))
system.cpu.dcache.LoadLockedReq.avgMissLatency::total       583338                       # average LoadLockedReq miss latency ((Tick/Count))
system.cpu.dcache.LoadLockedReq.mshrMisses::cpu.data            1                       # number of LoadLockedReq MSHR misses (Count)
system.cpu.dcache.LoadLockedReq.mshrMisses::total            1                       # number of LoadLockedReq MSHR misses (Count)
system.cpu.dcache.LoadLockedReq.mshrMissLatency::cpu.data       541671                       # number of LoadLockedReq MSHR miss ticks (Tick)
system.cpu.dcache.LoadLockedReq.mshrMissLatency::total       541671                       # number of LoadLockedReq MSHR miss ticks (Tick)
system.cpu.dcache.LoadLockedReq.mshrMissRate::cpu.data     0.333333                       # mshr miss rate for LoadLockedReq accesses (Ratio)
system.cpu.dcache.LoadLockedReq.mshrMissRate::total     0.333333                       # mshr miss rate for LoadLockedReq accesses (Ratio)
system.cpu.dcache.LoadLockedReq.avgMshrMissLatency::cpu.data       541671                       # average LoadLockedReq mshr miss latency ((Tick/Count))
system.cpu.dcache.LoadLockedReq.avgMshrMissLatency::total       541671                       # average LoadLockedReq mshr miss latency ((Tick/Count))
system.cpu.dcache.ReadReq.hits::cpu.data         5854                       # number of ReadReq hits (Count)
system.cpu.dcache.ReadReq.hits::total            5854                       # number of ReadReq hits (Count)
system.cpu.dcache.ReadReq.misses::cpu.data          685                       # number of ReadReq misses (Count)
system.cpu.dcache.ReadReq.misses::total           685                       # number of ReadReq misses (Count)
system.cpu.dcache.ReadReq.missLatency::cpu.data    403461561                       # number of ReadReq miss ticks (Tick)
system.cpu.dcache.ReadReq.missLatency::total    403461561                       # number of ReadReq miss ticks (Tick)
system.cpu.dcache.ReadReq.accesses::cpu.data         6539                       # number of ReadReq accesses(hits+misses) (Count)
system.cpu.dcache.ReadReq.accesses::total         6539                       # number of ReadReq accesses(hits+misses) (Count)
system.cpu.dcache.ReadReq.missRate::cpu.data     0.104756                       # miss rate for ReadReq accesses (Ratio)
system.cpu.dcache.ReadReq.missRate::total     0.104756                       # miss rate for ReadReq accesses (Ratio)
system.cpu.dcache.ReadReq.avgMissLatency::cpu.data 588994.979562                       # average ReadReq miss latency ((Tick/Count))
system.cpu.dcache.ReadReq.avgMissLatency::total 588994.979562                       # average ReadReq miss latency ((Tick/Count))
system.cpu.dcache.ReadReq.mshrHits::cpu.data           93                       # number of ReadReq MSHR hits (Count)
system.cpu.dcache.ReadReq.mshrHits::total           93                       # number of ReadReq MSHR hits (Count)
system.cpu.dcache.ReadReq.mshrMisses::cpu.data          592                       # number of ReadReq MSHR misses (Count)
system.cpu.dcache.ReadReq.mshrMisses::total          592                       # number of ReadReq MSHR misses (Count)
system.cpu.dcache.ReadReq.mshrMissLatency::cpu.data    315835860                       # number of ReadReq MSHR miss ticks (Tick)
system.cpu.dcache.ReadReq.mshrMissLatency::total    315835860                       # number of ReadReq MSHR miss ticks (Tick)
system.cpu.dcache.ReadReq.mshrMissRate::cpu.data     0.090534                       # mshr miss rate for ReadReq accesses (Ratio)
system.cpu.dcache.ReadReq.mshrMissRate::total     0.090534                       # mshr miss rate for ReadReq accesses (Ratio)
system.cpu.dcache.ReadReq.avgMshrMissLatency::cpu.data 533506.520270                       # average ReadReq mshr miss latency ((Tick/Count))
system.cpu.dcache.ReadReq.avgMshrMissLatency::total 533506.520270                       # average ReadReq mshr miss latency ((Tick/Count))
system.cpu.dcache.StoreCondReq.hits::cpu.data            3                       # number of StoreCondReq hits (Count)
system.cpu.dcache.StoreCondReq.hits::total            3                       # number of StoreCondReq hits (Count)
system.cpu.dcache.StoreCondReq.accesses::cpu.data            3                       # number of StoreCondReq accesses(hits+misses) (Count)
system.cpu.dcache.StoreCondReq.accesses::total            3                       # number of StoreCondReq accesses(hits+misses) (Count)
system.cpu.dcache.SwapReq.hits::cpu.data            3                       # number of SwapReq hits (Count)
system.cpu.dcache.SwapReq.hits::total               3                       # number of SwapReq hits (Count)
system.cpu.dcache.SwapReq.misses::cpu.data            1                       # number of SwapReq misses (Count)
system.cpu.dcache.SwapReq.misses::total             1                       # number of SwapReq misses (Count)
system.cpu.dcache.SwapReq.missLatency::cpu.data       541671                       # number of SwapReq miss ticks (Tick)
system.cpu.dcache.SwapReq.missLatency::total       541671                       # number of SwapReq miss ticks (Tick)
system.cpu.dcache.SwapReq.accesses::cpu.data            4                       # number of SwapReq accesses(hits+misses) (Count)
system.cpu.dcache.SwapReq.accesses::total            4                       # number of SwapReq accesses(hits+misses) (Count)
system.cpu.dcache.SwapReq.missRate::cpu.data     0.250000                       # miss rate for SwapReq accesses (Ratio)
system.cpu.dcache.SwapReq.missRate::total     0.250000                       # miss rate for SwapReq accesses (Ratio)
system.cpu.dcache.SwapReq.avgMissLatency::cpu.data       541671                       # average SwapReq miss latency ((Tick/Count))
system.cpu.dcache.SwapReq.avgMissLatency::total       541671                       # average SwapReq miss latency ((Tick/Count))
system.cpu.dcache.SwapReq.mshrMisses::cpu.data            1                       # number of SwapReq MSHR misses (Count)
system.cpu.dcache.SwapReq.mshrMisses::total            1                       # number of SwapReq MSHR misses (Count)
system.cpu.dcache.SwapReq.mshrMissLatency::cpu.data       500004                       # number of SwapReq MSHR miss ticks (Tick)
system.cpu.dcache.SwapReq.mshrMissLatency::total       500004                       # number of SwapReq MSHR miss ticks (Tick)
system.cpu.dcache.SwapReq.mshrMissRate::cpu.data     0.250000                       # mshr miss rate for SwapReq accesses (Ratio)
system.cpu.dcache.SwapReq.mshrMissRate::total     0.250000                       # mshr miss rate for SwapReq accesses (Ratio)
system.cpu.dcache.SwapReq.avgMshrMissLatency::cpu.data       500004                       # average SwapReq mshr miss latency ((Tick/Count))
system.cpu.dcache.SwapReq.avgMshrMissLatency::total       500004                       # average SwapReq mshr miss latency ((Tick/Count))
system.cpu.dcache.WriteReq.hits::cpu.data         1958                       # number of WriteReq hits (Count)
system.cpu.dcache.WriteReq.hits::total           1958                       # number of WriteReq hits (Count)
system.cpu.dcache.WriteReq.misses::cpu.data          273                       # number of WriteReq misses (Count)
system.cpu.dcache.WriteReq.misses::total          273                       # number of WriteReq misses (Count)
system.cpu.dcache.WriteReq.missLatency::cpu.data    159834612                       # number of WriteReq miss ticks (Tick)
system.cpu.dcache.WriteReq.missLatency::total    159834612                       # number of WriteReq miss ticks (Tick)
system.cpu.dcache.WriteReq.accesses::cpu.data         2231                       # number of WriteReq accesses(hits+misses) (Count)
system.cpu.dcache.WriteReq.accesses::total         2231                       # number of WriteReq accesses(hits+misses) (Count)
system.cpu.dcache.WriteReq.missRate::cpu.data     0.122367                       # miss rate for WriteReq accesses (Ratio)
system.cpu.dcache.WriteReq.missRate::total     0.122367                       # miss rate for WriteReq accesses (Ratio)
system.cpu.dcache.WriteReq.avgMissLatency::cpu.data 585474.769231                       # average WriteReq miss latency ((Tick/Count))
system.cpu.dcache.WriteReq.avgMissLatency::total 585474.769231                       # average WriteReq miss latency ((Tick/Count))
system.cpu.dcache.WriteReq.mshrHits::cpu.data           86                       # number of WriteReq MSHR hits (Count)
system.cpu.dcache.WriteReq.mshrHits::total           86                       # number of WriteReq MSHR hits (Count)
system.cpu.dcache.WriteReq.mshrMisses::cpu.data          187                       # number of WriteReq MSHR misses (Count)
system.cpu.dcache.WriteReq.mshrMisses::total          187                       # number of WriteReq MSHR misses (Count)
system.cpu.dcache.WriteReq.mshrMissLatency::cpu.data     99292461                       # number of WriteReq MSHR miss ticks (Tick)
system.cpu.dcache.WriteReq.mshrMissLatency::total     99292461                       # number of WriteReq MSHR miss ticks (Tick)
system.cpu.dcache.WriteReq.mshrMissRate::cpu.data     0.083819                       # mshr miss rate for WriteReq accesses (Ratio)
system.cpu.dcache.WriteReq.mshrMissRate::total     0.083819                       # mshr miss rate for WriteReq accesses (Ratio)
system.cpu.dcache.WriteReq.avgMshrMissLatency::cpu.data 530975.727273                       # average WriteReq mshr miss latency ((Tick/Count))
system.cpu.dcache.WriteReq.avgMshrMissLatency::total 530975.727273                       # average WriteReq mshr miss latency ((Tick/Count))
system.cpu.dcache.power_state.pwrStateResidencyTicks::UNDEFINED   2000000000                       # Cumulative time (in ticks) in various power states (Tick)
system.cpu.dcache.tags.tagsInUse            31.043992                       # Average ticks per tags in use ((Tick/Count))
system.cpu.dcache.tags.totalRefs                 8601                       # Total number of references to valid blocks. (Count)
system.cpu.dcache.tags.sampledRefs                781                       # Sample count of references to valid blocks. (Count)
[...]
system.mem_ctrl.dram.bwInstRead::total       16480000                       # Instruction read bandwidth from this memory ((Byte/Second))
system.mem_ctrl.dram.bwWrite::writebacks      7840000                       # Write bandwidth from this memory ((Byte/Second))
system.mem_ctrl.dram.bwWrite::total           7840000                       # Write bandwidth from this memory ((Byte/Second))
system.mem_ctrl.dram.bwTotal::writebacks      7840000                       # Total bandwidth to/from this memory ((Byte/Second))
system.mem_ctrl.dram.bwTotal::cpu.inst       16480000                       # Total bandwidth to/from this memory ((Byte/Second))
system.mem_ctrl.dram.bwTotal::cpu.data       24992000                       # Total bandwidth to/from this memory ((Byte/Second))
system.mem_ctrl.dram.bwTotal::total          49312000                       # Total bandwidth to/from this memory ((Byte/Second))
system.mem_ctrl.dram.readBursts                  1105                       # Number of DRAM read bursts (Count)
system.mem_ctrl.dram.writeBursts                  126                       # Number of DRAM write bursts (Count)
system.mem_ctrl.dram.perBankRdBursts::0           217                       # Per bank write bursts (Count)
system.mem_ctrl.dram.perBankRdBursts::1            67                       # Per bank write bursts (Count)
system.mem_ctrl.dram.perBankRdBursts::2             2                       # Per bank write bursts (Count)
system.mem_ctrl.dram.perBankRdBursts::3             5                       # Per bank write bursts (Count)
system.mem_ctrl.dram.perBankRdBursts::4            21                       # Per bank write bursts (Count)
system.mem_ctrl.dram.perBankRdBursts::5            82                       # Per bank write bursts (Count)
system.mem_ctrl.dram.perBankRdBursts::6           131                       # Per bank write bursts (Count)
system.mem_ctrl.dram.perBankRdBursts::7            63                       # Per bank write bursts (Count)
system.mem_ctrl.dram.perBankRdBursts::8            39                       # Per bank write bursts (Count)
system.mem_ctrl.dram.perBankRdBursts::9           170                       # Per bank write bursts (Count)
system.mem_ctrl.dram.perBankRdBursts::10           29                       # Per bank write bursts (Count)
system.mem_ctrl.dram.perBankRdBursts::11           21                       # Per bank write bursts (Count)
system.mem_ctrl.dram.perBankRdBursts::12           34                       # Per bank write bursts (Count)
system.mem_ctrl.dram.perBankRdBursts::13           63                       # Per bank write bursts (Count)
system.mem_ctrl.dram.perBankRdBursts::14           10                       # Per bank write bursts (Count)
system.mem_ctrl.dram.perBankRdBursts::15          151                       # Per bank write bursts (Count)
system.mem_ctrl.dram.perBankWrBursts::0             0                       # Per bank write bursts (Count)
system.mem_ctrl.dram.perBankWrBursts::1             0                       # Per bank write bursts (Count)
system.mem_ctrl.dram.perBankWrBursts::2             0                       # Per bank write bursts (Count)
system.mem_ctrl.dram.perBankWrBursts::3             0                       # Per bank write bursts (Count)
system.mem_ctrl.dram.perBankWrBursts::4             0                       # Per bank write bursts (Count)
system.mem_ctrl.dram.perBankWrBursts::5             0                       # Per bank write bursts (Count)
system.mem_ctrl.dram.perBankWrBursts::6             0                       # Per bank write bursts (Count)
system.mem_ctrl.dram.perBankWrBursts::7             0                       # Per bank write bursts (Count)
system.mem_ctrl.dram.perBankWrBursts::8             1                       # Per bank write bursts (Count)
system.mem_ctrl.dram.perBankWrBursts::9            47                       # Per bank write bursts (Count)
system.mem_ctrl.dram.perBankWrBursts::10           19                       # Per bank write bursts (Count)
system.mem_ctrl.dram.perBankWrBursts::11            0                       # Per bank write bursts (Count)
system.mem_ctrl.dram.perBankWrBursts::12           13                       # Per bank write bursts (Count)
system.mem_ctrl.dram.perBankWrBursts::13           38                       # Per bank write bursts (Count)
system.mem_ctrl.dram.perBankWrBursts::14            8                       # Per bank write bursts (Count)
system.mem_ctrl.dram.perBankWrBursts::15            0                       # Per bank write bursts (Count)
system.mem_ctrl.dram.totQLat                 12475499                       # Total ticks spent queuing (Tick)
system.mem_ctrl.dram.totBusLat                5525000                       # Total ticks spent in databus transfers (Tick)
system.mem_ctrl.dram.totMemAccLat            33194249                       # Total ticks spent from burst creation until serviced by the DRAM (Tick)
system.mem_ctrl.dram.avgQLat                 11290.04                       # Average queueing delay per DRAM burst ((Tick/Count))
system.mem_ctrl.dram.avgBusLat                5000.00                       # Average bus latency per DRAM burst ((Tick/Count))
system.mem_ctrl.dram.avgMemAccLat            30040.04                       # Average memory access latency per DRAM burst ((Tick/Count))
system.mem_ctrl.dram.readRowHits                  635                       # Number of row buffer hits during reads (Count)
system.mem_ctrl.dram.writeRowHits                 112                       # Number of row buffer hits during writes (Count)
system.mem_ctrl.dram.readRowHitRate             57.47                       # Row buffer hit rate for reads (Ratio)
system.mem_ctrl.dram.writeRowHitRate            88.89                       # Row buffer hit rate for writes (Ratio)
system.mem_ctrl.dram.bytesPerActivate::samples          483                       # Bytes accessed per row activation (Byte)
system.mem_ctrl.dram.bytesPerActivate::mean   162.848861                       # Bytes accessed per row activation (Byte)
system.mem_ctrl.dram.bytesPerActivate::gmean   125.166467                       # Bytes accessed per row activation (Byte)
system.mem_ctrl.dram.bytesPerActivate::stdev   144.990027                       # Bytes accessed per row activation (Byte)
system.mem_ctrl.dram.bytesPerActivate::0-127          191     39.54%     39.54% # Bytes accessed per row activation (Byte)
system.mem_ctrl.dram.bytesPerActivate::128-255          205     42.44%     81.99% # Bytes accessed per row activation (Byte)
system.mem_ctrl.dram.bytesPerActivate::256-383           37      7.66%     89.65% # Bytes accessed per row activation (Byte)
system.mem_ctrl.dram.bytesPerActivate::384-511           26      5.38%     95.03% # Bytes accessed per row activation (Byte)
system.mem_ctrl.dram.bytesPerActivate::512-639           12      2.48%     97.52% # Bytes accessed per row activation (Byte)
system.mem_ctrl.dram.bytesPerActivate::640-767            7      1.45%     98.96% # Bytes accessed per row activation (Byte)
system.mem_ctrl.dram.bytesPerActivate::768-895            3      0.62%     99.59% # Bytes accessed per row activation (Byte)
system.mem_ctrl.dram.bytesPerActivate::1024-1151            2      0.41%    100.00% # Bytes accessed per row activation (Byte)
system.mem_ctrl.dram.bytesPerActivate::total          483                       # Bytes accessed per row activation (Byte)
system.mem_ctrl.dram.dramBytesRead              70720                       # Total bytes read (Byte)
system.mem_ctrl.dram.dramBytesWritten            8064                       # Total bytes written (Byte)
system.mem_ctrl.dram.avgRdBW                35.360000                       # Average DRAM read bandwidth in MiBytes/s ((Byte/Second))
system.mem_ctrl.dram.avgWrBW                 4.032000                       # Average DRAM write bandwidth in MiBytes/s ((Byte/Second))
system.mem_ctrl.dram.peakBW                  12800.00                       # Theoretical peak bandwidth in MiByte/s ((Byte/Second))
system.mem_ctrl.dram.busUtil                     0.31                       # Data bus utilization in percentage (Ratio)
system.mem_ctrl.dram.busUtilRead                 0.28                       # Data bus utilization in percentage for reads (Ratio)
system.mem_ctrl.dram.busUtilWrite                0.03                       # Data bus utilization in percentage for writes (Ratio)
system.mem_ctrl.dram.pageHitRate                60.68                       # Row buffer hit rate, read and write combined (Ratio)
system.mem_ctrl.dram.power_state.pwrStateResidencyTicks::UNDEFINED   2000000000                       # Cumulative time (in ticks) in various power states (Tick)
system.mem_ctrl.dram.rank0.actEnergy          1535100                       # Energy for activate commands per rank (pJ) (Joule)
system.mem_ctrl.dram.rank0.preEnergy           812130                       # Energy for precharge commands per rank (pJ) (Joule)
system.mem_ctrl.dram.rank0.readEnergy         4198320                       # Energy for read commands per rank (pJ) (Joule)
system.mem_ctrl.dram.rank0.writeEnergy              0                       # Energy for write commands per rank (pJ) (Joule)
system.mem_ctrl.dram.rank0.refreshEnergy 157347840.000000                       # Energy for refresh commands per rank (pJ) (Joule)
system.mem_ctrl.dram.rank0.actBackEnergy    448937700                       # Energy for active background per rank (pJ) (Joule)
system.mem_ctrl.dram.rank0.preBackEnergy    389947200                       # Energy for precharge background per rank (pJ) (Joule)
system.mem_ctrl.dram.rank0.actPowerDownEnergy            0                       # Energy for active power-down per rank (pJ) (Joule)
system.mem_ctrl.dram.rank0.prePowerDownEnergy            0                       # Energy for precharge power-down per rank (pJ) (Joule)
system.mem_ctrl.dram.rank0.selfRefreshEnergy            0                       # Energy for self refresh per rank (pJ) (Joule)
system.mem_ctrl.dram.rank0.totalEnergy     1002778290                       # Total energy per rank (pJ) (Joule)
system.mem_ctrl.dram.rank0.averagePower    501.389145                       # Core power per rank (mW) (Watt)
system.mem_ctrl.dram.rank0.totalIdleTime            0                       # Total Idle time Per DRAM Rank (Tick)
system.mem_ctrl.dram.rank0.pwrStateTime::IDLE   1009620333                       # Time in different power states (Tick)
system.mem_ctrl.dram.rank0.pwrStateTime::REF     66560000                       # Time in different power states (Tick)
system.mem_ctrl.dram.rank0.pwrStateTime::SREF            0                       # Time in different power states (Tick)
system.mem_ctrl.dram.rank0.pwrStateTime::PRE_PDN            0                       # Time in different power states (Tick)
system.mem_ctrl.dram.rank0.pwrStateTime::ACT    923819667                       # Time in different power states (Tick)
system.mem_ctrl.dram.rank0.pwrStateTime::ACT_PDN            0                       # Time in different power states (Tick)
system.mem_ctrl.dram.rank1.actEnergy          1920660                       # Energy for activate commands per rank (pJ) (Joule)
system.mem_ctrl.dram.rank1.preEnergy          1020855                       # Energy for precharge commands per rank (pJ) (Joule)
system.mem_ctrl.dram.rank1.readEnergy         3691380                       # Energy for read commands per rank (pJ) (Joule)
system.mem_ctrl.dram.rank1.writeEnergy         657720                       # Energy for write commands per rank (pJ) (Joule)
system.mem_ctrl.dram.rank1.refreshEnergy 157347840.000000                       # Energy for refresh commands per rank (pJ) (Joule)
system.mem_ctrl.dram.rank1.actBackEnergy    410259210                       # Energy for active background per rank (pJ) (Joule)
system.mem_ctrl.dram.rank1.preBackEnergy    422518560                       # Energy for precharge background per rank (pJ) (Joule)
system.mem_ctrl.dram.rank1.actPowerDownEnergy            0                       # Energy for active power-down per rank (pJ) (Joule)
system.mem_ctrl.dram.rank1.prePowerDownEnergy            0                       # Energy for precharge power-down per rank (pJ) (Joule)
system.mem_ctrl.dram.rank1.selfRefreshEnergy            0                       # Energy for self refresh per rank (pJ) (Joule)
system.mem_ctrl.dram.rank1.totalEnergy      997416225                       # Total energy per rank (pJ) (Joule)
system.mem_ctrl.dram.rank1.averagePower    498.708113                       # Core power per rank (mW) (Watt)
system.mem_ctrl.dram.rank1.totalIdleTime            0                       # Total Idle time Per DRAM Rank (Tick)
system.mem_ctrl.dram.rank1.pwrStateTime::IDLE   1094547648                       # Time in different power states (Tick)
system.mem_ctrl.dram.rank1.pwrStateTime::REF     66560000                       # Time in different power states (Tick)
system.mem_ctrl.dram.rank1.pwrStateTime::SREF            0                       # Time in different power states (Tick)
system.mem_ctrl.dram.rank1.pwrStateTime::PRE_PDN            0                       # Time in different power states (Tick)
system.mem_ctrl.dram.rank1.pwrStateTime::ACT    838892352                       # Time in different power states (Tick)
system.mem_ctrl.dram.rank1.pwrStateTime::ACT_PDN            0                       # Time in different power states (Tick)
system.mem_ctrl.power_state.pwrStateResidencyTicks::UNDEFINED   2000000000                       # Cumulative time (in ticks) in various power states (Tick)
system.membus.transDist::ReadResp                1108                       # Transaction distribution (Count)
system.membus.transDist::WritebackDirty           245                       # Transaction distribution (Count)
system.membus.transDist::CleanEvict               955                       # Transaction distribution (Count)
system.membus.transDist::ReadExReq                188                       # Transaction distribution (Count)
system.membus.transDist::ReadExResp               188                       # Transaction distribution (Count)
system.membus.transDist::ReadSharedReq           1108                       # Transaction distribution (Count)
system.membus.pktCount_system.cpu.icache.mem_side_port::system.mem_ctrl.port         1481                       # Packet count per connected requestor and responder (Count)
system.membus.pktCount_system.cpu.icache.mem_side_port::total         1481                       # Packet count per connected requestor and responder (Count)
system.membus.pktCount_system.cpu.dcache.mem_side_port::system.mem_ctrl.port         2311                       # Packet count per connected requestor and responder (Count)
system.membus.pktCount_system.cpu.dcache.mem_side_port::total         2311                       # Packet count per connected requestor and responder (Count)
system.membus.pktCount::total                    3792                       # Packet count per connected requestor and responder (Count)
system.membus.pktSize_system.cpu.icache.mem_side_port::system.mem_ctrl.port        32960                       # Cumulative packet size per connected requestor and responder (Byte)
system.membus.pktSize_system.cpu.icache.mem_side_port::total        32960                       # Cumulative packet size per connected requestor and responder (Byte)
system.membus.pktSize_system.cpu.dcache.mem_side_port::system.mem_ctrl.port        65664                       # Cumulative packet size per connected requestor and responder (Byte)
system.membus.pktSize_system.cpu.dcache.mem_side_port::total        65664                       # Cumulative packet size per connected requestor and responder (Byte)
system.membus.pktSize::total                    98624                       # Cumulative packet size per connected requestor and responder (Byte)
system.membus.snoops                                0                       # Total snoops (Count)
system.membus.snoopTraffic                          0                       # Total snoop traffic (Byte)
system.membus.snoopFanout::samples               1296                       # Request fanout histogram (Count)
system.membus.snoopFanout::mean                     0                       # Request fanout histogram (Count)
system.membus.snoopFanout::stdev                    0                       # Request fanout histogram (Count)
system.membus.snoopFanout::underflows               0      0.00%      0.00% # Request fanout histogram (Count)
system.membus.snoopFanout::0                     1296    100.00%    100.00% # Request fanout histogram (Count)
system.membus.snoopFanout::1                        0      0.00%    100.00% # Request fanout histogram (Count)
system.membus.snoopFanout::2                        0      0.00%    100.00% # Request fanout histogram (Count)
system.membus.snoopFanout::overflows                0      0.00%    100.00% # Request fanout histogram (Count)
system.membus.snoopFanout::min_value                0                       # Request fanout histogram (Count)
system.membus.snoopFanout::max_value                0                       # Request fanout histogram (Count)
system.membus.snoopFanout::total                 1296                       # Request fanout histogram (Count)
system.membus.power_state.pwrStateResidencyTicks::UNDEFINED   2000000000                       # Cumulative time (in ticks) in various power states (Tick)
system.membus.reqLayer1.occupancy           144834492                       # Layer occupancy (ticks) (Tick)
system.membus.reqLayer1.utilization               0.1                       # Layer utilization (Ratio)
system.membus.respLayer0.occupancy          113021844                       # Layer occupancy (ticks) (Tick)
system.membus.respLayer0.utilization              0.1                       # Layer utilization (Ratio)
system.membus.respLayer1.occupancy          178268077                       # Layer occupancy (ticks) (Tick)
system.membus.respLayer1.utilization              0.1                       # Layer utilization (Ratio)
system.membus.snoop_filter.totRequests           2496                       # Total number of requests made to the snoop filter. (Count)
system.membus.snoop_filter.hitSingleRequests         1200                       # Number of requests hitting in the snoop filter with a single holder of the requested data. (Count)
system.membus.snoop_filter.hitMultiRequests            0                       # Number of requests hitting in the snoop filter with multiple (>1) holders of the requested data. (Count)
system.membus.snoop_filter.totSnoops                0                       # Total number of snoops made to the snoop filter. (Count)
system.membus.snoop_filter.hitSingleSnoops            0                       # Number of snoops hitting in the snoop filter with a single holder of the requested data. (Count)
system.membus.snoop_filter.hitMultiSnoops            0                       # Number of snoops hitting in the snoop filter with multiple (>1) holders of the requested data. (Count)
system.scratchpad.power_state.pwrStateResidencyTicks::UNDEFINED   2000000000                       # Cumulative time (in ticks) in various power states (Tick)
system.workload.inst.arm                            0                       # number of arm instructions executed (Count)
system.workload.inst.quiesce                        0                       # number of quiesce instructions executed (Count)
system.cpu.idleCycles                            4661                       # Total number of cycles that the object has spent stopped (Unspecified)
system.cpu.tickCycles                           43338                       # Number of cycles that the object actually ticked (Unspecified)

---------- End Simulation Statistics   ----------
